LTspice 24.1.4 for Windows
Circuit: C:\Users\arild\Documents\Prosjekter\ArcticProto\GettingToBlinky\LTspice\astable.net
Start Time: Tue Mar  4 17:36:25 2025
solver = Normal
Maximum thread count: 12
tnom = 27
temp = 27
method = modified trap
Direct Newton iteration for .op point succeeded.
Total elapsed time: 0.095 seconds.

Files loaded:
C:\Users\arild\Documents\Prosjekter\ArcticProto\GettingToBlinky\LTspice\astable.net
C:\Users\arild\AppData\Local\LTspice\lib\cmp\standard.dio
C:\Users\arild\AppData\Local\LTspice\lib\sub\NE555.sub

